/*--------------------------------*- C++ -*----------------------------------*\
| =========                 |                                                 |
| \\      /  F ield         | OpenFOAM: The Open Source CFD Toolbox           |
|  \\    /   O peration     | Version:  dev                                   |
|   \\  /    A nd           | Web:      www.OpenFOAM.org                      |
|    \\/     M anipulation  |                                                 |
\*---------------------------------------------------------------------------*/
FoamFile
{
    version     2.0;
    format      ascii;
    class       dictionary;
    object      blockMeshDict;
}
// * * * * * * * * * * * * * * * * * * * * * * * * * * * * * * * * * * * * * //

convertToMeters 1;

vertices
(
    (-10 0 0)  // 0
    (10  0 0)  // 1
    (10  1 0)  // 2
    (-10 1 0)  // 3
    (-10 0 20) // 4
    (10  0 20) // 5
    (10  1 20) // 6
    (-10 1 20) // 7
);

blocks
(
    hex (0 1 2 3 4 5 6 7) (10 1 10) simpleGrading (1 1 1)
);

edges
(
);

boundary
(
	inlet
	{
		type cyclic;
		neighbourPatch outlet;
		matchTolerance 0.01;
		faces ((0 3 7 4));
	}

	outlet
	{
		type cyclic;
		neighbourPatch inlet;
		matchTolerance 0.01;
		faces ((1 2 6 5));
	}

	ground
	{
		type wall;
		faces ((0 1 2 3));
	}

	top
	{
		type wall;
		faces ((4 5 6 7));
	}

	frontAndBack
	{
		type empty;
		faces
		(
			(0 1 5 4)
			(3 2 6 7)
		);
	}
);

mergePatchPairs
(
);

// ************************************************************************* //
